ZINC03814457
     RDKit          3D

 30 31  0  0  1  0  0  0  0  0999 V2000
    3.1703    0.7243    1.4855 C   0  0  0  0  0  0  0  0  0  0  0  0
    3.1877    0.2116    0.0531 C   0  0  0  0  0  0  0  0  0  0  0  0
    3.5609    1.3161   -0.9126 C   0  0  0  0  0  0  0  0  0  0  0  0
    1.8188   -0.2605   -0.3426 C   0  0  0  0  0  0  0  0  0  0  0  0
    1.2114    0.2222   -1.2669 O   0  0  0  0  0  0  0  0  0  0  0  0
    1.2256   -1.3496    0.4424 C   0  0  0  0  0  0  0  0  0  0  0  0
   -0.0549   -1.6417    0.0115 O   0  0  0  0  0  0  0  0  0  0  0  0
   -1.1509   -0.8171    0.0136 C   0  0  0  0  0  0  0  0  0  0  0  0
   -2.3359   -1.3534   -0.4848 C   0  0  0  0  0  0  0  0  0  0  0  0
   -3.4406   -0.5632   -0.4951 C   0  0  0  0  0  0  0  0  0  0  0  0
   -4.4401   -1.3168   -1.0216 N   0  0  0  0  0  0  0  0  0  0  0  0
   -3.9741   -2.5352   -1.3290 C   0  0  0  0  0  0  0  0  0  0  0  0
   -2.6737   -2.5490   -0.9941 N   0  0  0  0  0  0  0  0  0  0  0  0
   -3.3866    0.6971   -0.0371 N   0  0  0  0  0  0  0  0  0  0  0  0
   -2.2506    1.2387    0.4504 C   0  0  0  0  0  0  0  0  0  0  0  0
   -1.1635    0.4471    0.4556 N   0  0  0  0  0  0  0  0  0  0  0  0
   -2.2310    2.5781    0.9272 N   0  0  0  0  0  0  0  0  0  0  0  0
    3.8782    1.5469    1.5701 H   0  0  0  0  0  0  0  0  0  0  0  0
    3.4140   -0.1095    2.2004 H   0  0  0  0  0  0  0  0  0  0  0  0
    2.1210    1.0100    1.7085 H   0  0  0  0  0  0  0  0  0  0  0  0
    3.8648   -0.6523   -0.0221 H   0  0  0  0  0  0  0  0  0  0  0  0
    4.1357    0.8483   -1.7429 H   0  0  0  0  0  0  0  0  0  0  0  0
    2.6541    1.7552   -1.3929 H   0  0  0  0  0  0  0  0  0  0  0  0
    4.1263    2.1262   -0.4037 H   0  0  0  0  0  0  0  0  0  0  0  0
    1.9002   -2.2439    0.2804 H   0  0  0  0  0  0  0  0  0  0  0  0
    1.2261   -1.1223    1.5358 H   0  0  0  0  0  0  0  0  0  0  0  0
   -5.4198   -1.0130   -1.1705 H   0  0  0  0  0  0  0  0  0  0  0  0
   -4.5244   -3.3784   -1.7696 H   0  0  0  0  0  0  0  0  0  0  0  0
   -2.2861    2.7755    1.9503 H   0  0  0  0  0  0  0  0  0  0  0  0
   -2.1627    3.4088    0.3008 H   0  0  0  0  0  0  0  0  0  0  0  0
  1  2  1  0
  1 18  1  0
  1 19  1  0
  1 20  1  0
  2  3  1  0
  2  4  1  0
  2 21  1  0
  3 22  1  0
  3 23  1  0
  3 24  1  0
  4  5  2  0
  4  6  1  0
  6  7  1  0
  6 25  1  0
  6 26  1  0
  7  8  1  0
  8 16  2  0
  8  9  1  0
  9 13  1  0
  9 10  2  0
 10 11  1  0
 10 14  1  0
 11 12  1  0
 11 27  1  0
 12 13  2  0
 12 28  1  0
 14 15  2  0
 15 16  1  0
 15 17  1  0
 17 29  1  0
 17 30  1  0
M  END
>  <id>  (1) 
ZINC03814457

>  <Cluster>  (1) 
1

>  <MODEL.SOURCE>  (1) 
CORINA 3.44 0027  09.01.2008

>  <MODEL.CCRATIO>  (1) 
1

>  <r_mmffld_Potential_Energy-OPLS_2005>  (1) 
-78.6454

>  <r_mmffld_RMS_Derivative-OPLS_2005>  (1) 
0.000213629

>  <b_mmffld_Minimization_Converged-OPLS_2005>  (1) 
1

$$$$
ZINC03814459
     RDKit          3D

 30 32  0  0  1  0  0  0  0  0999 V2000
   -3.9795   -2.5756   -1.1049 C   0  0  0  0  0  0  0  0  0  0  0  0
   -4.5145   -1.5020   -0.5255 N   0  0  0  0  0  0  0  0  0  0  0  0
   -3.5087   -0.6311   -0.2864 C   0  0  0  0  0  0  0  0  0  0  0  0
   -2.3271   -1.1861   -0.7309 C   0  0  0  0  0  0  0  0  0  0  0  0
   -2.6499   -2.3942   -1.2346 N   0  0  0  0  0  0  0  0  0  0  0  0
   -1.1084   -0.5246   -0.6221 C   0  0  0  0  0  0  0  0  0  0  0  0
   -1.1432    0.6888   -0.0587 N   0  0  0  0  0  0  0  0  0  0  0  0
   -2.2882    1.2625    0.3886 C   0  0  0  0  0  0  0  0  0  0  0  0
   -3.4468    0.6001    0.2698 N   0  0  0  0  0  0  0  0  0  0  0  0
   -2.2850    2.5442    0.9774 N   0  0  0  0  0  0  0  0  0  0  0  0
    0.0216   -1.1577   -1.0947 O   0  0  0  0  0  0  0  0  0  0  0  0
    1.3220   -0.6395   -1.0636 C   0  0  0  0  0  0  0  0  0  0  0  0
    1.8244   -0.3435    0.3396 C   0  0  0  0  0  0  0  0  0  0  0  0
    3.2684    0.1290    0.2996 C   0  0  0  0  0  0  0  0  0  0  0  0
    3.9605   -0.9119    1.1552 C   0  0  0  0  0  0  0  0  0  0  0  0
    3.0645   -2.1266    0.8780 C   0  0  0  0  0  0  0  0  0  0  0  0
    1.8050   -1.5301    1.0472 O   0  0  0  0  0  0  0  0  0  0  0  0
   -4.5417   -3.4345   -1.4096 H   0  0  0  0  0  0  0  0  0  0  0  0
   -5.5197   -1.3101   -0.2762 H   0  0  0  0  0  0  0  0  0  0  0  0
   -1.9719    2.6470    1.9546 H   0  0  0  0  0  0  0  0  0  0  0  0
   -2.5916    3.3676    0.4379 H   0  0  0  0  0  0  0  0  0  0  0  0
    1.4477    0.2475   -1.7269 H   0  0  0  0  0  0  0  0  0  0  0  0
    1.9938   -1.4199   -1.4898 H   0  0  0  0  0  0  0  0  0  0  0  0
    1.2609    0.4728    0.8326 H   0  0  0  0  0  0  0  0  0  0  0  0
    3.6757    0.0424   -0.7327 H   0  0  0  0  0  0  0  0  0  0  0  0
    3.4210    1.1084    0.7547 H   0  0  0  0  0  0  0  0  0  0  0  0
    3.8687   -0.6993    2.2228 H   0  0  0  0  0  0  0  0  0  0  0  0
    4.9988   -1.1021    0.8210 H   0  0  0  0  0  0  0  0  0  0  0  0
    3.2214   -2.9114    1.6201 H   0  0  0  0  0  0  0  0  0  0  0  0
    3.1534   -2.4454   -0.1612 H   0  0  0  0  0  0  0  0  0  0  0  0
  1  5  2  0
  1  2  1  0
  1 18  1  0
  2  3  1  0
  2 19  1  0
  3  9  1  0
  3  4  2  0
  4  5  1  0
  4  6  1  0
  6  7  2  0
  6 11  1  0
  7  8  1  0
  8  9  2  0
  8 10  1  0
 10 20  1  0
 10 21  1  0
 11 12  1  0
 12 13  1  0
 12 22  1  0
 12 23  1  0
 13 17  1  0
 13 14  1  0
 13 24  1  0
 14 15  1  0
 14 25  1  0
 14 26  1  0
 15 16  1  0
 15 27  1  0
 15 28  1  0
 16 17  1  0
 16 29  1  0
 16 30  1  0
M  END
>  <id>  (2) 
ZINC03814459

>  <Cluster>  (2) 
2

>  <MODEL.SOURCE>  (2) 
CORINA 3.44 0027  09.01.2008

>  <MODEL.CCRATIO>  (2) 
1

>  <s_st_Chirality_1>  (2) 
13_S_17_12_14_24

>  <r_mmffld_Potential_Energy-OPLS_2005>  (2) 
-67.4705

>  <r_mmffld_RMS_Derivative-OPLS_2005>  (2) 
9.48919e-05

>  <b_mmffld_Minimization_Converged-OPLS_2005>  (2) 
1

$$$$
ZINC03814460
     RDKit          3D

 30 32  0  0  1  0  0  0  0  0999 V2000
   -3.9848   -2.5518   -1.3372 C   0  0  0  0  0  0  0  0  0  0  0  0
   -4.4441   -1.3305   -1.0270 N   0  0  0  0  0  0  0  0  0  0  0  0
   -3.4698   -0.5648   -0.5030 C   0  0  0  0  0  0  0  0  0  0  0  0
   -2.3455   -1.3705   -0.4933 C   0  0  0  0  0  0  0  0  0  0  0  0
   -2.6815   -2.5696   -1.0032 N   0  0  0  0  0  0  0  0  0  0  0  0
   -1.1712   -0.8367    0.0013 C   0  0  0  0  0  0  0  0  0  0  0  0
   -1.1610    0.4289    0.4496 N   0  0  0  0  0  0  0  0  0  0  0  0
   -2.2472    1.2273    0.4472 C   0  0  0  0  0  0  0  0  0  0  0  0
   -3.3876    0.7006   -0.0360 N   0  0  0  0  0  0  0  0  0  0  0  0
   -2.1912    2.5745    0.9363 N   0  0  0  0  0  0  0  0  0  0  0  0
   -0.0502   -1.6522    0.0068 O   0  0  0  0  0  0  0  0  0  0  0  0
    1.1452   -1.1162    0.5076 C   0  0  0  0  0  0  0  0  0  0  0  0
    2.2782   -2.1249    0.4481 C   0  0  0  0  0  0  0  0  0  0  0  0
    3.5040   -1.5768    1.1042 C   0  0  0  0  0  0  0  0  0  0  0  0
    4.1390   -2.6843    1.8810 C   0  0  0  0  0  0  0  0  0  0  0  0
    3.2523   -3.8435    1.6165 C   0  0  0  0  0  0  0  0  0  0  0  0
    3.5502   -5.0810    1.7275 O   0  0  0  0  0  0  0  0  0  0  0  0
    2.0027   -3.3103    1.2145 N   0  0  0  0  0  0  0  0  0  0  0  0
   -4.4907   -3.4055   -1.7700 H   0  0  0  0  0  0  0  0  0  0  0  0
   -5.4259   -1.0195   -1.1739 H   0  0  0  0  0  0  0  0  0  0  0  0
   -1.9517    3.3701    0.2874 H   0  0  0  0  0  0  0  0  0  0  0  0
   -2.3768    2.8330    1.9214 H   0  0  0  0  0  0  0  0  0  0  0  0
    1.0595   -0.7685    1.5556 H   0  0  0  0  0  0  0  0  0  0  0  0
    1.4866   -0.2381   -0.0891 H   0  0  0  0  0  0  0  0  0  0  0  0
    2.5230   -2.4091   -0.5912 H   0  0  0  0  0  0  0  0  0  0  0  0
    3.1594   -0.7701    1.8139 H   0  0  0  0  0  0  0  0  0  0  0  0
    4.1991   -1.1369    0.3575 H   0  0  0  0  0  0  0  0  0  0  0  0
    5.1632   -2.8420    1.4835 H   0  0  0  0  0  0  0  0  0  0  0  0
    4.1702   -2.4352    2.9625 H   0  0  0  0  0  0  0  0  0  0  0  0
    1.0552   -3.7238    1.4449 H   0  0  0  0  0  0  0  0  0  0  0  0
  1  5  2  0
  1  2  1  0
  1 19  1  0
  2  3  1  0
  2 20  1  0
  3  9  1  0
  3  4  2  0
  4  5  1  0
  4  6  1  0
  6  7  2  0
  6 11  1  0
  7  8  1  0
  8  9  2  0
  8 10  1  0
 10 21  1  0
 10 22  1  0
 11 12  1  0
 12 13  1  0
 12 23  1  0
 12 24  1  0
 13 18  1  0
 13 14  1  0
 13 25  1  0
 14 15  1  0
 14 26  1  0
 14 27  1  0
 15 16  1  0
 15 28  1  0
 15 29  1  0
 16 17  2  0
 16 18  1  0
 18 30  1  0
M  END
>  <id>  (3) 
ZINC03814460

>  <Cluster>  (3) 
2

>  <MODEL.SOURCE>  (3) 
CORINA 3.44 0027  09.01.2008

>  <MODEL.CCRATIO>  (3) 
1

>  <s_st_Chirality_1>  (3) 
13_R_18_12_14_25

>  <r_mmffld_Potential_Energy-OPLS_2005>  (3) 
-89.4303

>  <r_mmffld_RMS_Derivative-OPLS_2005>  (3) 
5.17485e-05

>  <b_mmffld_Minimization_Converged-OPLS_2005>  (3) 
1

$$$$
