ZINC03814457
     RDKit          3D

 30 31  0  0  1  0  0  0  0  0999 V2000
    5.4230   -0.4412    0.7616 C   0  0  0  0  0  0  0  0  0  0  0  0
    4.2434    0.3667    0.1880 C   0  0  0  0  0  0  0  0  0  0  0  0
    4.5978    0.9630   -1.1852 C   0  0  0  0  0  0  0  0  0  0  0  0
    2.9575   -0.4703    0.1074 C   0  0  0  0  0  0  0  0  0  0  0  0
    2.9988   -1.6999    0.0580 O   0  0  0  0  0  0  0  0  0  0  0  0
    1.6357    0.2975    0.0804 C   0  0  0  0  0  0  0  0  0  0  0  0
    0.5374   -0.6063    0.0692 O   0  0  0  0  0  0  0  0  0  0  0  0
   -0.7229   -0.0532    0.0310 C   0  0  0  0  0  0  0  0  0  0  0  0
   -1.8848   -0.8592   -0.0106 C   0  0  0  0  0  0  0  0  0  0  0  0
   -3.1098   -0.1432   -0.0466 C   0  0  0  0  0  0  0  0  0  0  0  0
   -4.0854   -1.1212   -0.0831 N   0  0  0  0  0  0  0  0  0  0  0  0
   -3.4330   -2.2959   -0.0687 C   0  0  0  0  0  0  0  0  0  0  0  0
   -2.1041   -2.2310   -0.0241 N   0  0  0  0  0  0  0  0  0  0  0  0
   -3.2721    1.2054   -0.0433 N   0  0  0  0  0  0  0  0  0  0  0  0
   -2.0919    1.8123   -0.0064 C   0  0  0  0  0  0  0  0  0  0  0  0
   -0.8677    1.2990    0.0350 N   0  0  0  0  0  0  0  0  0  0  0  0
   -2.1448    3.1672   -0.0074 N   0  0  0  0  0  0  0  0  0  0  0  0
    5.7118   -1.2538    0.0931 H   0  0  0  0  0  0  0  0  0  0  0  0
    6.2974    0.1913    0.9136 H   0  0  0  0  0  0  0  0  0  0  0  0
    5.1671   -0.8852    1.7247 H   0  0  0  0  0  0  0  0  0  0  0  0
    4.0364    1.1881    0.8743 H   0  0  0  0  0  0  0  0  0  0  0  0
    5.4832    1.5956   -1.1194 H   0  0  0  0  0  0  0  0  0  0  0  0
    4.8059    0.1785   -1.9146 H   0  0  0  0  0  0  0  0  0  0  0  0
    3.7887    1.5777   -1.5810 H   0  0  0  0  0  0  0  0  0  0  0  0
    1.6085    0.9288   -0.8080 H   0  0  0  0  0  0  0  0  0  0  0  0
    1.5821    0.9425    0.9579 H   0  0  0  0  0  0  0  0  0  0  0  0
   -5.0816   -0.9900   -0.1173 H   0  0  0  0  0  0  0  0  0  0  0  0
   -3.9506   -3.2459   -0.0915 H   0  0  0  0  0  0  0  0  0  0  0  0
   -3.0380    3.6039    0.1519 H   0  0  0  0  0  0  0  0  0  0  0  0
   -1.3036    3.6737    0.2145 H   0  0  0  0  0  0  0  0  0  0  0  0
  1  2  1  0
  1 18  1  0
  1 19  1  0
  1 20  1  0
  2  3  1  0
  2  4  1  0
  2 21  1  0
  3 22  1  0
  3 23  1  0
  3 24  1  0
  4  5  2  0
  4  6  1  0
  6  7  1  0
  6 25  1  0
  6 26  1  0
  7  8  1  0
  8 16  2  0
  8  9  1  0
  9 13  1  0
  9 10  2  0
 10 11  1  0
 10 14  1  0
 11 12  1  0
 11 27  1  0
 12 13  2  0
 12 28  1  0
 14 15  2  0
 15 16  1  0
 15 17  1  0
 17 29  1  0
 17 30  1  0
M  END
>  <id>  (1) 
ZINC03814457

>  <Cluster>  (1) 
1

>  <MODEL.SOURCE>  (1) 
CORINA 3.44 0027  09.01.2008

>  <MODEL.CCRATIO>  (1) 
1

>  <r_mmffld_Potential_Energy-OPLS_2005>  (1) 
-78.6454

>  <r_mmffld_RMS_Derivative-OPLS_2005>  (1) 
0.000213629

>  <b_mmffld_Minimization_Converged-OPLS_2005>  (1) 
1

$$$$
ZINC03814459
     RDKit          3D

 30 32  0  0  1  0  0  0  0  0999 V2000
    3.2069    2.4332    0.1683 C   0  0  0  0  0  0  0  0  0  0  0  0
    3.9680    1.3361    0.0191 N   0  0  0  0  0  0  0  0  0  0  0  0
    3.0936    0.2661   -0.0051 C   0  0  0  0  0  0  0  0  0  0  0  0
    1.8080    0.8502    0.1384 C   0  0  0  0  0  0  0  0  0  0  0  0
    1.8933    2.2332    0.2504 N   0  0  0  0  0  0  0  0  0  0  0  0
    0.7321   -0.0685    0.1386 C   0  0  0  0  0  0  0  0  0  0  0  0
    1.0086   -1.3940    0.0148 N   0  0  0  0  0  0  0  0  0  0  0  0
    2.2734   -1.7772   -0.1068 C   0  0  0  0  0  0  0  0  0  0  0  0
    3.3866   -1.0536   -0.1367 N   0  0  0  0  0  0  0  0  0  0  0  0
    2.4572   -3.1158   -0.2204 N   0  0  0  0  0  0  0  0  0  0  0  0
   -0.5735    0.3558    0.2686 O   0  0  0  0  0  0  0  0  0  0  0  0
   -1.5971   -0.6310    0.2422 C   0  0  0  0  0  0  0  0  0  0  0  0
   -2.9575    0.0650    0.3723 C   0  0  0  0  0  0  0  0  0  0  0  0
   -4.1165   -0.8888    0.6548 C   0  0  0  0  0  0  0  0  0  0  0  0
   -5.3322   -0.1496    0.1130 C   0  0  0  0  0  0  0  0  0  0  0  0
   -4.7364    0.9594   -0.7584 C   0  0  0  0  0  0  0  0  0  0  0  0
   -3.3578    0.6367   -0.8635 O   0  0  0  0  0  0  0  0  0  0  0  0
    3.6300    3.4278    0.2204 H   0  0  0  0  0  0  0  0  0  0  0  0
    4.9699    1.3070   -0.0571 H   0  0  0  0  0  0  0  0  0  0  0  0
    3.3600   -3.4373   -0.5285 H   0  0  0  0  0  0  0  0  0  0  0  0
    1.6460   -3.6786   -0.4180 H   0  0  0  0  0  0  0  0  0  0  0  0
   -1.4556   -1.3123    1.0829 H   0  0  0  0  0  0  0  0  0  0  0  0
   -1.5595   -1.2189   -0.6765 H   0  0  0  0  0  0  0  0  0  0  0  0
   -2.9193    0.8386    1.1419 H   0  0  0  0  0  0  0  0  0  0  0  0
   -4.2043   -1.1389    1.7124 H   0  0  0  0  0  0  0  0  0  0  0  0
   -3.9777   -1.8177    0.0998 H   0  0  0  0  0  0  0  0  0  0  0  0
   -5.9676   -0.8188   -0.4679 H   0  0  0  0  0  0  0  0  0  0  0  0
   -5.9361    0.2761    0.9151 H   0  0  0  0  0  0  0  0  0  0  0  0
   -5.2028    1.0183   -1.7422 H   0  0  0  0  0  0  0  0  0  0  0  0
   -4.8426    1.9307   -0.2727 H   0  0  0  0  0  0  0  0  0  0  0  0
  1  5  2  0
  1  2  1  0
  1 18  1  0
  2  3  1  0
  2 19  1  0
  3  9  1  0
  3  4  2  0
  4  5  1  0
  4  6  1  0
  6  7  2  0
  6 11  1  0
  7  8  1  0
  8  9  2  0
  8 10  1  0
 10 20  1  0
 10 21  1  0
 11 12  1  0
 12 13  1  0
 12 22  1  0
 12 23  1  0
 13 17  1  0
 13 14  1  0
 13 24  1  0
 14 15  1  0
 14 25  1  0
 14 26  1  0
 15 16  1  0
 15 27  1  0
 15 28  1  0
 16 17  1  0
 16 29  1  0
 16 30  1  0
M  END
>  <id>  (2) 
ZINC03814459

>  <Cluster>  (2) 
2

>  <MODEL.SOURCE>  (2) 
CORINA 3.44 0027  09.01.2008

>  <MODEL.CCRATIO>  (2) 
1

>  <s_st_Chirality_1>  (2) 
13_S_17_12_14_24

>  <r_mmffld_Potential_Energy-OPLS_2005>  (2) 
-67.4705

>  <r_mmffld_RMS_Derivative-OPLS_2005>  (2) 
9.48919e-05

>  <b_mmffld_Minimization_Converged-OPLS_2005>  (2) 
1

$$$$
ZINC03814460
     RDKit          3D

 30 32  0  0  1  0  0  0  0  0999 V2000
    3.3194   -2.5066    0.0843 C   0  0  0  0  0  0  0  0  0  0  0  0
    4.1145   -1.4610   -0.1995 N   0  0  0  0  0  0  0  0  0  0  0  0
    3.3024   -0.3435   -0.1656 C   0  0  0  0  0  0  0  0  0  0  0  0
    2.0148   -0.8475    0.1540 C   0  0  0  0  0  0  0  0  0  0  0  0
    2.0369   -2.2280    0.3112 N   0  0  0  0  0  0  0  0  0  0  0  0
    0.9970    0.1295    0.2432 C   0  0  0  0  0  0  0  0  0  0  0  0
    1.3206    1.4309    0.0252 N   0  0  0  0  0  0  0  0  0  0  0  0
    2.5804    1.7382   -0.2609 C   0  0  0  0  0  0  0  0  0  0  0  0
    3.6434    0.9522   -0.3882 N   0  0  0  0  0  0  0  0  0  0  0  0
    2.8175    3.0587   -0.4559 N   0  0  0  0  0  0  0  0  0  0  0  0
   -0.3031   -0.2181    0.5456 O   0  0  0  0  0  0  0  0  0  0  0  0
   -1.2774    0.8172    0.5722 C   0  0  0  0  0  0  0  0  0  0  0  0
   -2.6317    0.1830    0.9135 C   0  0  0  0  0  0  0  0  0  0  0  0
   -3.8036    1.1841    0.9337 C   0  0  0  0  0  0  0  0  0  0  0  0
   -4.9476    0.5099    0.1612 C   0  0  0  0  0  0  0  0  0  0  0  0
   -4.2606   -0.6554   -0.5236 C   0  0  0  0  0  0  0  0  0  0  0  0
   -4.7986   -1.3641   -1.3655 O   0  0  0  0  0  0  0  0  0  0  0  0
   -3.0155   -0.7920   -0.0881 N   0  0  0  0  0  0  0  0  0  0  0  0
    3.6926   -3.5215    0.1277 H   0  0  0  0  0  0  0  0  0  0  0  0
    5.1005   -1.4934   -0.3946 H   0  0  0  0  0  0  0  0  0  0  0  0
    2.0224    3.6654   -0.5719 H   0  0  0  0  0  0  0  0  0  0  0  0
    3.6977    3.3217   -0.8681 H   0  0  0  0  0  0  0  0  0  0  0  0
   -1.0170    1.5627    1.3256 H   0  0  0  0  0  0  0  0  0  0  0  0
   -1.3252    1.3193   -0.3962 H   0  0  0  0  0  0  0  0  0  0  0  0
   -2.5677   -0.3307    1.8744 H   0  0  0  0  0  0  0  0  0  0  0  0
   -4.0962    1.4367    1.9533 H   0  0  0  0  0  0  0  0  0  0  0  0
   -3.5279    2.1149    0.4357 H   0  0  0  0  0  0  0  0  0  0  0  0
   -5.4105    1.1759   -0.5673 H   0  0  0  0  0  0  0  0  0  0  0  0
   -5.7190    0.1278    0.8301 H   0  0  0  0  0  0  0  0  0  0  0  0
   -2.3825   -1.5024   -0.4255 H   0  0  0  0  0  0  0  0  0  0  0  0
  1  5  2  0
  1  2  1  0
  1 19  1  0
  2  3  1  0
  2 20  1  0
  3  9  1  0
  3  4  2  0
  4  5  1  0
  4  6  1  0
  6  7  2  0
  6 11  1  0
  7  8  1  0
  8  9  2  0
  8 10  1  0
 10 21  1  0
 10 22  1  0
 11 12  1  0
 12 13  1  0
 12 23  1  0
 12 24  1  0
 13 18  1  0
 13 14  1  0
 13 25  1  0
 14 15  1  0
 14 26  1  0
 14 27  1  0
 15 16  1  0
 15 28  1  0
 15 29  1  0
 16 17  2  0
 16 18  1  0
 18 30  1  0
M  END
>  <id>  (3) 
ZINC03814460

>  <Cluster>  (3) 
2

>  <MODEL.SOURCE>  (3) 
CORINA 3.44 0027  09.01.2008

>  <MODEL.CCRATIO>  (3) 
1

>  <s_st_Chirality_1>  (3) 
13_R_18_12_14_25

>  <r_mmffld_Potential_Energy-OPLS_2005>  (3) 
-89.4303

>  <r_mmffld_RMS_Derivative-OPLS_2005>  (3) 
5.17485e-05

>  <b_mmffld_Minimization_Converged-OPLS_2005>  (3) 
1

$$$$
