ZINC03814457
     RDKit          3D

 30 31  0  0  1  0  0  0  0  0999 V2000
    3.5602    1.3199    0.9814 C   0  0  0  0  0  0  0  0  0  0  0  0
    3.4725   -0.0830    0.4064 C   0  0  0  0  0  0  0  0  0  0  0  0
    4.6636   -0.4196   -0.4298 C   0  0  0  0  0  0  0  0  0  0  0  0
    2.2152   -0.2515   -0.3706 C   0  0  0  0  0  0  0  0  0  0  0  0
    2.2881   -0.5345   -1.5486 O   0  0  0  0  0  0  0  0  0  0  0  0
    0.8797   -0.0808    0.2657 C   0  0  0  0  0  0  0  0  0  0  0  0
   -0.1613   -0.2937   -0.6844 O   0  0  0  0  0  0  0  0  0  0  0  0
   -1.4999   -0.1914   -0.3344 C   0  0  0  0  0  0  0  0  0  0  0  0
   -2.4311   -0.4164   -1.3283 C   0  0  0  0  0  0  0  0  0  0  0  0
   -3.7670   -0.3181   -0.9950 C   0  0  0  0  0  0  0  0  0  0  0  0
   -4.4471   -0.5795   -2.1270 N   0  0  0  0  0  0  0  0  0  0  0  0
   -3.6098   -0.8343   -3.1435 C   0  0  0  0  0  0  0  0  0  0  0  0
   -2.3693   -0.7303   -2.6367 N   0  0  0  0  0  0  0  0  0  0  0  0
   -4.1212   -0.0093    0.2752 N   0  0  0  0  0  0  0  0  0  0  0  0
   -3.2179    0.2110    1.2480 C   0  0  0  0  0  0  0  0  0  0  0  0
   -1.9194    0.1117    0.9083 N   0  0  0  0  0  0  0  0  0  0  0  0
   -3.6021    0.5361    2.5848 N   0  0  0  0  0  0  0  0  0  0  0  0
    3.5224    2.0836    0.1558 H   0  0  0  0  0  0  0  0  0  0  0  0
    4.5489    1.3918    1.4816 H   0  0  0  0  0  0  0  0  0  0  0  0
    2.7141    1.4304    1.6845 H   0  0  0  0  0  0  0  0  0  0  0  0
    3.4864   -0.7712    1.2917 H   0  0  0  0  0  0  0  0  0  0  0  0
    5.0395    0.5008   -0.9644 H   0  0  0  0  0  0  0  0  0  0  0  0
    5.5253   -0.7862    0.2006 H   0  0  0  0  0  0  0  0  0  0  0  0
    4.4741   -1.1946   -1.1794 H   0  0  0  0  0  0  0  0  0  0  0  0
    0.8137    0.9741    0.6041 H   0  0  0  0  0  0  0  0  0  0  0  0
    0.7533   -0.7142    1.1680 H   0  0  0  0  0  0  0  0  0  0  0  0
   -5.4847   -0.5814   -2.1951 H   0  0  0  0  0  0  0  0  0  0  0  0
   -3.8403   -1.0796   -4.1818 H   0  0  0  0  0  0  0  0  0  0  0  0
   -4.5262    0.2582    2.9451 H   0  0  0  0  0  0  0  0  0  0  0  0
   -2.9596    1.0521    3.2034 H   0  0  0  0  0  0  0  0  0  0  0  0
  1  2  1  0
  1 18  1  0
  1 19  1  0
  1 20  1  0
  2  3  1  0
  2  4  1  0
  2 21  1  0
  3 22  1  0
  3 23  1  0
  3 24  1  0
  4  5  2  0
  4  6  1  0
  6  7  1  0
  6 25  1  0
  6 26  1  0
  7  8  1  0
  8 16  2  0
  8  9  1  0
  9 13  1  0
  9 10  2  0
 10 11  1  0
 10 14  1  0
 11 12  1  0
 11 27  1  0
 12 13  2  0
 12 28  1  0
 14 15  2  0
 15 16  1  0
 15 17  1  0
 17 29  1  0
 17 30  1  0
M  END
>  <id>  (1) 
ZINC03814457

>  <Cluster>  (1) 
1

>  <MODEL.SOURCE>  (1) 
CORINA 3.44 0027  09.01.2008

>  <MODEL.CCRATIO>  (1) 
1

>  <r_mmffld_Potential_Energy-OPLS_2005>  (1) 
-78.6454

>  <r_mmffld_RMS_Derivative-OPLS_2005>  (1) 
0.000213629

>  <b_mmffld_Minimization_Converged-OPLS_2005>  (1) 
1

$$$$
ZINC03814459
     RDKit          3D

 30 32  0  0  1  0  0  0  0  0999 V2000
   -3.6263   -0.8230   -3.1221 C   0  0  0  0  0  0  0  0  0  0  0  0
   -4.4907   -0.6073   -2.1178 N   0  0  0  0  0  0  0  0  0  0  0  0
   -3.8119   -0.3338   -0.9905 C   0  0  0  0  0  0  0  0  0  0  0  0
   -2.4584   -0.3832   -1.3150 C   0  0  0  0  0  0  0  0  0  0  0  0
   -2.3898   -0.6818   -2.6127 N   0  0  0  0  0  0  0  0  0  0  0  0
   -1.4910   -0.1455   -0.3665 C   0  0  0  0  0  0  0  0  0  0  0  0
   -1.8786    0.1361    0.8831 N   0  0  0  0  0  0  0  0  0  0  0  0
   -3.1954    0.1903    1.2253 C   0  0  0  0  0  0  0  0  0  0  0  0
   -4.1311   -0.0453    0.2834 N   0  0  0  0  0  0  0  0  0  0  0  0
   -3.5412    0.4961    2.5763 N   0  0  0  0  0  0  0  0  0  0  0  0
   -0.1625   -0.2108   -0.7581 O   0  0  0  0  0  0  0  0  0  0  0  0
    0.8456    0.0320    0.2091 C   0  0  0  0  0  0  0  0  0  0  0  0
    2.1833   -0.0996   -0.4697 C   0  0  0  0  0  0  0  0  0  0  0  0
    3.3301    0.2389    0.4490 C   0  0  0  0  0  0  0  0  0  0  0  0
    4.4533   -0.5198   -0.2365 C   0  0  0  0  0  0  0  0  0  0  0  0
    3.6765   -1.7483   -0.7212 C   0  0  0  0  0  0  0  0  0  0  0  0
    2.4100   -1.3298   -1.0148 O   0  0  0  0  0  0  0  0  0  0  0  0
   -3.9077   -1.0654   -4.1476 H   0  0  0  0  0  0  0  0  0  0  0  0
   -5.5306   -0.6338   -2.1475 H   0  0  0  0  0  0  0  0  0  0  0  0
   -2.9425    1.1654    3.1060 H   0  0  0  0  0  0  0  0  0  0  0  0
   -4.3857    0.0502    3.0213 H   0  0  0  0  0  0  0  0  0  0  0  0
    0.6814    1.0507    0.5877 H   0  0  0  0  0  0  0  0  0  0  0  0
    0.7083   -0.6658    1.0418 H   0  0  0  0  0  0  0  0  0  0  0  0
    2.2117    0.6506   -1.2985 H   0  0  0  0  0  0  0  0  0  0  0  0
    3.5380    1.3230    0.5057 H   0  0  0  0  0  0  0  0  0  0  0  0
    3.2111   -0.2323    1.4574 H   0  0  0  0  0  0  0  0  0  0  0  0
    4.8293    0.0719   -1.1097 H   0  0  0  0  0  0  0  0  0  0  0  0
    5.2587   -0.7949    0.4650 H   0  0  0  0  0  0  0  0  0  0  0  0
    3.6032   -2.4158    0.1872 H   0  0  0  0  0  0  0  0  0  0  0  0
    4.1852   -2.2434   -1.5542 H   0  0  0  0  0  0  0  0  0  0  0  0
  1  5  2  0
  1  2  1  0
  1 18  1  0
  2  3  1  0
  2 19  1  0
  3  9  1  0
  3  4  2  0
  4  5  1  0
  4  6  1  0
  6  7  2  0
  6 11  1  0
  7  8  1  0
  8  9  2  0
  8 10  1  0
 10 20  1  0
 10 21  1  0
 11 12  1  0
 12 13  1  0
 12 22  1  0
 12 23  1  0
 13 17  1  0
 13 14  1  0
 13 24  1  0
 14 15  1  0
 14 25  1  0
 14 26  1  0
 15 16  1  0
 15 27  1  0
 15 28  1  0
 16 17  1  0
 16 29  1  0
 16 30  1  0
M  END
>  <id>  (2) 
ZINC03814459

>  <Cluster>  (2) 
2

>  <MODEL.SOURCE>  (2) 
CORINA 3.44 0027  09.01.2008

>  <MODEL.CCRATIO>  (2) 
1

>  <s_st_Chirality_1>  (2) 
13_S_17_12_14_24

>  <r_mmffld_Potential_Energy-OPLS_2005>  (2) 
-67.4705

>  <r_mmffld_RMS_Derivative-OPLS_2005>  (2) 
9.48919e-05

>  <b_mmffld_Minimization_Converged-OPLS_2005>  (2) 
1

$$$$
ZINC03814460
     RDKit          3D

 30 32  0  0  1  0  0  0  0  0999 V2000
   -3.6775   -0.8165   -3.1004 C   0  0  0  0  0  0  0  0  0  0  0  0
   -4.5135   -0.5575   -2.0790 N   0  0  0  0  0  0  0  0  0  0  0  0
   -3.7916   -0.3106   -0.9865 C   0  0  0  0  0  0  0  0  0  0  0  0
   -2.4650   -0.4138   -1.3162 C   0  0  0  0  0  0  0  0  0  0  0  0
   -2.4262   -0.7261   -2.6232 N   0  0  0  0  0  0  0  0  0  0  0  0
   -1.4738   -0.2091   -0.3801 C   0  0  0  0  0  0  0  0  0  0  0  0
   -1.8805    0.0968    0.8717 N   0  0  0  0  0  0  0  0  0  0  0  0
   -3.1823    0.2011    1.2077 C   0  0  0  0  0  0  0  0  0  0  0  0
   -4.1481   -0.0002    0.2879 N   0  0  0  0  0  0  0  0  0  0  0  0
   -3.5497    0.5288    2.5539 N   0  0  0  0  0  0  0  0  0  0  0  0
   -0.1373   -0.3186   -0.7351 O   0  0  0  0  0  0  0  0  0  0  0  0
    0.8172   -0.0953    0.2761 C   0  0  0  0  0  0  0  0  0  0  0  0
    2.2342   -0.2379   -0.2120 C   0  0  0  0  0  0  0  0  0  0  0  0
    3.1578    0.2075    0.8935 C   0  0  0  0  0  0  0  0  0  0  0  0
    4.3863    0.7280    0.1901 C   0  0  0  0  0  0  0  0  0  0  0  0
    3.8226    1.2784   -1.0590 C   0  0  0  0  0  0  0  0  0  0  0  0
    4.3712    2.1165   -1.8045 O   0  0  0  0  0  0  0  0  0  0  0  0
    2.5490    0.6967   -1.2753 N   0  0  0  0  0  0  0  0  0  0  0  0
   -3.9160   -1.0572   -4.1286 H   0  0  0  0  0  0  0  0  0  0  0  0
   -5.5692   -0.5501   -2.1301 H   0  0  0  0  0  0  0  0  0  0  0  0
   -3.3750    1.4836    2.9128 H   0  0  0  0  0  0  0  0  0  0  0  0
   -3.9845   -0.2126    3.1318 H   0  0  0  0  0  0  0  0  0  0  0  0
    0.6767   -0.8383    1.0858 H   0  0  0  0  0  0  0  0  0  0  0  0
    0.6434    0.9056    0.7102 H   0  0  0  0  0  0  0  0  0  0  0  0
    2.4442   -1.2551   -0.5689 H   0  0  0  0  0  0  0  0  0  0  0  0
    2.6765    1.0527    1.4339 H   0  0  0  0  0  0  0  0  0  0  0  0
    3.4208   -0.6331    1.5645 H   0  0  0  0  0  0  0  0  0  0  0  0
    4.9274    1.4992    0.7932 H   0  0  0  0  0  0  0  0  0  0  0  0
    5.1249   -0.0799    0.0001 H   0  0  0  0  0  0  0  0  0  0  0  0
    1.9384    0.9207   -2.0892 H   0  0  0  0  0  0  0  0  0  0  0  0
  1  5  2  0
  1  2  1  0
  1 19  1  0
  2  3  1  0
  2 20  1  0
  3  9  1  0
  3  4  2  0
  4  5  1  0
  4  6  1  0
  6  7  2  0
  6 11  1  0
  7  8  1  0
  8  9  2  0
  8 10  1  0
 10 21  1  0
 10 22  1  0
 11 12  1  0
 12 13  1  0
 12 23  1  0
 12 24  1  0
 13 18  1  0
 13 14  1  0
 13 25  1  0
 14 15  1  0
 14 26  1  0
 14 27  1  0
 15 16  1  0
 15 28  1  0
 15 29  1  0
 16 17  2  0
 16 18  1  0
 18 30  1  0
M  END
>  <id>  (3) 
ZINC03814460

>  <Cluster>  (3) 
2

>  <MODEL.SOURCE>  (3) 
CORINA 3.44 0027  09.01.2008

>  <MODEL.CCRATIO>  (3) 
1

>  <s_st_Chirality_1>  (3) 
13_R_18_12_14_25

>  <r_mmffld_Potential_Energy-OPLS_2005>  (3) 
-89.4303

>  <r_mmffld_RMS_Derivative-OPLS_2005>  (3) 
5.17485e-05

>  <b_mmffld_Minimization_Converged-OPLS_2005>  (3) 
1

$$$$
